Results/1rd_myc/from_terminal_3/network_debug.txt
Pandapower Network Debug Info
==================================================

BUS:
          name  vn_kv type  zone  in_service   geo
0        Bus 8    0.4    b  None        True  None
1        Bus 9    0.4    b  None        True  None
2       Bus 10    0.4    b  None        True  None
3       Bus 11    0.4    b  None        True  None
4       Bus 16    0.4    b  None        True  None
5       Bus 17    0.4    b  None        True  None
6       Bus 18    0.4    b  None        True  None
7       Bus 19    0.4    b  None        True  None
8       Bus 20    0.4    b  None        True  None
9       Bus 21   15.0    b  None        True  None
10      Bus 22   15.0    b  None        True  None
11      Bus 23   15.0    b  None        True  None
12      Bus 24   15.0    b  None        True  None
13      Bus 25   15.0    b  None        True  None
14      Bus 26   15.0    b  None        True  None
15    Sub MV 2   15.0    b  None        True  None
16    Sub LV 2    0.4    b  None        True  None
17    Sub MV 5   15.0    b  None        True  None
18    Sub LV 5    0.4    b  None        True  None
19  Slack HV 0   70.0    b  None        True  None
20  Slack MV 0   15.0    b  None        True  None
21  Slack HV 1   70.0    b  None        True  None
22  Slack MV 1   15.0    b  None        True  None
--------------------------------------------------

LOAD:
            name  bus          p_mw        q_mvar  const_z_percent  const_i_percent  sn_mva  scaling  in_service type
0      Load 8 T1    0  2.420315e-03 -7.904893e-05              0.0              0.0     NaN      1.0        True  wye
1      Load 8 T2    0  1.767268e-03 -6.943452e-05              0.0              0.0     NaN      1.0        True  wye
2      Load 8 T3    0  1.894068e-03 -2.749817e-05              0.0              0.0     NaN      1.0        True  wye
3      Load 8 T4    0  1.773593e-03 -7.215994e-05              0.0              0.0     NaN      1.0        True  wye
4      Load 8 T5    0  1.863795e-03 -3.450862e-05              0.0              0.0     NaN      1.0        True  wye
5      Load 8 T6    0  1.959320e-03 -5.759729e-05              0.0              0.0     NaN      1.0        True  wye
6      Load 8 T7    0  1.496197e-03 -5.636680e-05              0.0              0.0     NaN      1.0        True  wye
7      Load 8 T8    0 -5.784935e-04 -1.895185e-05              0.0              0.0     NaN      1.0        True  wye
8      Load 8 T9    0 -2.935900e-03 -4.573597e-05              0.0              0.0     NaN      1.0        True  wye
9     Load 8 T10    0 -6.858389e-03 -2.756023e-04              0.0              0.0     NaN      1.0        True  wye
10    Load 8 T11    0 -8.715493e-03 -3.325262e-04              0.0              0.0     NaN      1.0        True  wye
11    Load 8 T12    0 -1.164624e-02 -4.084454e-03              0.0              0.0     NaN      1.0        True  wye
12    Load 8 T13    0 -1.167632e-02 -2.431707e-03              0.0              0.0     NaN      1.0        True  wye
13    Load 8 T14    0 -1.062216e-02 -5.045367e-03              0.0              0.0     NaN      1.0        True  wye
14    Load 8 T15    0 -7.281820e-03 -3.341656e-04              0.0              0.0     NaN      1.0        True  wye
15    Load 8 T16    0 -4.209582e-03 -7.750332e-05              0.0              0.0     NaN      1.0        True  wye
16    Load 8 T17    0 -5.606869e-04 -8.625924e-06              0.0              0.0     NaN      1.0        True  wye
17    Load 8 T18    0  1.959376e-03 -9.004783e-05              0.0              0.0     NaN      1.0        True  wye
18    Load 8 T19    0  1.857367e-03 -2.094443e-05              0.0              0.0     NaN      1.0        True  wye
19    Load 8 T20    0  2.130766e-03 -9.944233e-05              0.0              0.0     NaN      1.0        True  wye
20    Load 8 T21    0  2.101486e-03 -4.476914e-05              0.0              0.0     NaN      1.0        True  wye
21    Load 8 T22    0  2.212090e-03 -6.858416e-05              0.0              0.0     NaN      1.0        True  wye
22    Load 8 T23    0  2.568567e-03 -8.997408e-05              0.0              0.0     NaN      1.0        True  wye
23    Load 8 T24    0  2.274469e-03 -2.332168e-05              0.0              0.0     NaN      1.0        True  wye
24     Load 9 T1    1  3.655779e-03 -5.832728e-06              0.0              0.0     NaN      1.0        True  wye
25     Load 9 T2    1  3.160005e-03 -6.108616e-06              0.0              0.0     NaN      1.0        True  wye
26     Load 9 T3    1  2.878443e-03  0.000000e+00              0.0              0.0     NaN      1.0        True  wye
27     Load 9 T4    1  3.089809e-03 -6.750154e-06              0.0              0.0     NaN      1.0        True  wye
28     Load 9 T5    1  3.217155e-03  0.000000e+00              0.0              0.0     NaN      1.0        True  wye
29     Load 9 T6    1  3.210994e-03 -2.815086e-09              0.0              0.0     NaN      1.0        True  wye
30     Load 9 T7    1  1.779101e-03 -6.712453e-06              0.0              0.0     NaN      1.0        True  wye
31     Load 9 T8    1  6.334929e-04 -4.421039e-06              0.0              0.0     NaN      1.0        True  wye
32     Load 9 T9    1 -2.093542e-03 -5.374639e-06              0.0              0.0     NaN      1.0        True  wye
33    Load 9 T10    1 -4.874287e-03 -3.280125e-05              0.0              0.0     NaN      1.0        True  wye
34    Load 9 T11    1 -6.627351e-03 -1.517154e-05              0.0              0.0     NaN      1.0        True  wye
35    Load 9 T12    1 -1.011902e-02 -3.302223e-03              0.0              0.0     NaN      1.0        True  wye
36    Load 9 T13    1 -1.027996e-02 -1.828392e-03              0.0              0.0     NaN      1.0        True  wye
37    Load 9 T14    1 -9.005192e-03 -4.370142e-06              0.0              0.0     NaN      1.0        True  wye
38    Load 9 T15    1 -5.230764e-03 -3.331892e-05              0.0              0.0     NaN      1.0        True  wye
39    Load 9 T16    1 -3.566717e-03 -6.124951e-06              0.0              0.0     NaN      1.0        True  wye
40    Load 9 T17    1  5.518966e-04 -1.540879e-06              0.0              0.0     NaN      1.0        True  wye
41    Load 9 T18    1  2.974452e-03 -6.718293e-06              0.0              0.0     NaN      1.0        True  wye
42    Load 9 T19    1  3.231361e-03  0.000000e+00              0.0              0.0     NaN      1.0        True  wye
43    Load 9 T20    1  3.403210e-03 -5.585632e-06              0.0              0.0     NaN      1.0        True  wye
44    Load 9 T21    1  2.651945e-03 -2.345266e-06              0.0              0.0     NaN      1.0        True  wye
45    Load 9 T22    1  3.188858e-03 -5.282042e-06              0.0              0.0     NaN      1.0        True  wye
46    Load 9 T23    1  2.854274e-03 -2.741038e-06              0.0              0.0     NaN      1.0        True  wye
47    Load 9 T24    1  2.972457e-03  0.000000e+00              0.0              0.0     NaN      1.0        True  wye
48    Load 10 T1    2  2.574735e-03  4.644360e-07              0.0              0.0     NaN      1.0        True  wye
49    Load 10 T2    2  2.696504e-03  4.644360e-07              0.0              0.0     NaN      1.0        True  wye
50    Load 10 T3    2  9.628524e-08  3.403744e-07              0.0              0.0     NaN      1.0        True  wye
51    Load 10 T4    2  2.979659e-03  4.644360e-07              0.0              0.0     NaN      1.0        True  wye
52    Load 10 T5    2  3.516816e-07 -4.644360e-07              0.0              0.0     NaN      1.0        True  wye
53    Load 10 T6    2  1.594173e-06  4.644360e-07              0.0              0.0     NaN      1.0        True  wye
54    Load 10 T7    2  2.963019e-03  4.644360e-07              0.0              0.0     NaN      1.0        True  wye
55    Load 10 T8    2  1.951660e-03  4.644360e-07              0.0              0.0     NaN      1.0        True  wye
56    Load 10 T9    2 -2.371846e-03  4.644360e-07              0.0              0.0     NaN      1.0        True  wye
57   Load 10 T10    2 -6.603772e-03  4.644360e-07              0.0              0.0     NaN      1.0        True  wye
58   Load 10 T11    2 -4.261253e-03  0.000000e+00              0.0              0.0     NaN      1.0        True  wye
59   Load 10 T12    2  5.160624e-03  4.644360e-07              0.0              0.0     NaN      1.0        True  wye
60   Load 10 T13    2  3.212592e-03 -5.730254e-03              0.0              0.0     NaN      1.0        True  wye
61   Load 10 T14    2  1.929196e-03  4.644360e-07              0.0              0.0     NaN      1.0        True  wye
62   Load 10 T15    2 -6.672568e-03  4.644360e-07              0.0              0.0     NaN      1.0        True  wye
63   Load 10 T16    2 -2.703010e-03  4.644360e-07              0.0              0.0     NaN      1.0        True  wye
64   Load 10 T17    2  6.804476e-04  4.644360e-07              0.0              0.0     NaN      1.0        True  wye
65   Load 10 T18    2  2.965596e-03  4.644360e-07              0.0              0.0     NaN      1.0        True  wye
66   Load 10 T19    2  3.516816e-07  4.644360e-07              0.0              0.0     NaN      1.0        True  wye
67   Load 10 T20    2  2.465675e-03  4.644360e-07              0.0              0.0     NaN      1.0        True  wye
68   Load 10 T21    2  1.035479e-03  2.322180e-07              0.0              0.0     NaN      1.0        True  wye
69   Load 10 T22    2  2.331680e-03  4.644360e-07              0.0              0.0     NaN      1.0        True  wye
70   Load 10 T23    2  1.210160e-03  4.644360e-07              0.0              0.0     NaN      1.0        True  wye
71   Load 10 T24    2  3.516816e-07  4.644360e-07              0.0              0.0     NaN      1.0        True  wye
72    Load 11 T1    3  3.212241e-03  0.000000e+00              0.0              0.0     NaN      1.0        True  wye
73    Load 11 T2    3  3.212241e-03  0.000000e+00              0.0              0.0     NaN      1.0        True  wye
74    Load 11 T3    3  2.390482e-03  0.000000e+00              0.0              0.0     NaN      1.0        True  wye
75    Load 11 T4    3  3.212241e-03  0.000000e+00              0.0              0.0     NaN      1.0        True  wye
76    Load 11 T5    3  2.941437e-03  0.000000e+00              0.0              0.0     NaN      1.0        True  wye
77    Load 11 T6    3  4.722988e-03  0.000000e+00              0.0              0.0     NaN      1.0        True  wye
78    Load 11 T7    3  3.434712e-03  0.000000e+00              0.0              0.0     NaN      1.0        True  wye
79    Load 11 T8    3  2.869265e-03  0.000000e+00              0.0              0.0     NaN      1.0        True  wye
80    Load 11 T9    3 -1.692718e-03  0.000000e+00              0.0              0.0     NaN      1.0        True  wye
81   Load 11 T10    3 -4.936912e-03  0.000000e+00              0.0              0.0     NaN      1.0        True  wye
82   Load 11 T11    3 -6.590069e-03  0.000000e+00              0.0              0.0     NaN      1.0        True  wye
83   Load 11 T12    3  3.037534e-03 -7.151398e-03              0.0              0.0     NaN      1.0        True  wye
84   Load 11 T13    3 -1.995949e-04 -8.329269e-03              0.0              0.0     NaN      1.0        True  wye
85   Load 11 T14    3 -3.212241e-03  0.000000e+00              0.0              0.0     NaN      1.0        True  wye
86   Load 11 T15    3 -6.609821e-03  0.000000e+00              0.0              0.0     NaN      1.0        True  wye
87   Load 11 T16    3 -1.711296e-03  0.000000e+00              0.0              0.0     NaN      1.0        True  wye
88   Load 11 T17    3  2.120833e-03  0.000000e+00              0.0              0.0     NaN      1.0        True  wye
89   Load 11 T18    3  4.587640e-03  0.000000e+00              0.0              0.0     NaN      1.0        True  wye
90   Load 11 T19    3  8.912844e-04  0.000000e+00              0.0              0.0     NaN      1.0        True  wye
91   Load 11 T20    3  5.180732e-03  0.000000e+00              0.0              0.0     NaN      1.0        True  wye
92   Load 11 T21    3  3.212241e-03  0.000000e+00              0.0              0.0     NaN      1.0        True  wye
93   Load 11 T22    3  3.212241e-03  0.000000e+00              0.0              0.0     NaN      1.0        True  wye
94   Load 11 T23    3  6.021814e-03  0.000000e+00              0.0              0.0     NaN      1.0        True  wye
95   Load 11 T24    3  1.286626e-03  0.000000e+00              0.0              0.0     NaN      1.0        True  wye
96    Load 16 T1    4  5.146474e-03 -7.709983e-04              0.0              0.0     NaN      1.0        True  wye
97    Load 16 T2    4  4.710589e-03 -1.076566e-03              0.0              0.0     NaN      1.0        True  wye
98    Load 16 T3    4  3.949894e-03 -8.132998e-04              0.0              0.0     NaN      1.0        True  wye
99    Load 16 T4    4  6.320136e-03 -9.827465e-04              0.0              0.0     NaN      1.0        True  wye
100   Load 16 T5    4  3.378075e-03 -1.072588e-03              0.0              0.0     NaN      1.0        True  wye
101   Load 16 T6    4  1.980204e-03 -1.113143e-03              0.0              0.0     NaN      1.0        True  wye
102   Load 16 T7    4  6.280662e-03 -1.102686e-03              0.0              0.0     NaN      1.0        True  wye
103   Load 16 T8    4  3.215077e-03 -1.006048e-03              0.0              0.0     NaN      1.0        True  wye
104   Load 16 T9    4  1.764368e-03 -8.230840e-04              0.0              0.0     NaN      1.0        True  wye
105  Load 16 T10    4 -9.562750e-04 -8.562149e-04              0.0              0.0     NaN      1.0        True  wye
106  Load 16 T11    4 -3.528587e-06 -1.000821e-03              0.0              0.0     NaN      1.0        True  wye
107  Load 16 T12    4  7.029508e-03 -1.095819e-03              0.0              0.0     NaN      1.0        True  wye
108  Load 16 T13    4  7.386470e-03 -8.296716e-04              0.0              0.0     NaN      1.0        True  wye
109  Load 16 T14    4  4.173267e-03 -9.773732e-04              0.0              0.0     NaN      1.0        True  wye
110  Load 16 T15    4 -2.031987e-03 -1.088867e-03              0.0              0.0     NaN      1.0        True  wye
111  Load 16 T16    4  8.276959e-05 -8.125877e-04              0.0              0.0     NaN      1.0        True  wye
112  Load 16 T17    4  4.800816e-03 -1.022328e-03              0.0              0.0     NaN      1.0        True  wye
113  Load 16 T18    4  3.197013e-03 -7.909430e-04              0.0              0.0     NaN      1.0        True  wye
114  Load 16 T19    4  3.243730e-03 -8.004717e-04              0.0              0.0     NaN      1.0        True  wye
115  Load 16 T20    4  3.433621e-03 -8.356305e-04              0.0              0.0     NaN      1.0        True  wye
116  Load 16 T21    4  5.489077e-03 -9.600704e-04              0.0              0.0     NaN      1.0        True  wye
117  Load 16 T22    4  3.706855e-03 -7.838765e-04              0.0              0.0     NaN      1.0        True  wye
118  Load 16 T23    4  3.195985e-03 -1.054843e-03              0.0              0.0     NaN      1.0        True  wye
119  Load 16 T24    4  4.078127e-03 -9.189379e-04              0.0              0.0     NaN      1.0        True  wye
120   Load 17 T1    5  7.425665e-03 -3.365703e-05              0.0              0.0     NaN      1.0        True  wye
121   Load 17 T2    5  3.216703e-03 -6.267348e-06              0.0              0.0     NaN      1.0        True  wye
122   Load 17 T3    5  3.264863e-03 -6.580744e-06              0.0              0.0     NaN      1.0        True  wye
123   Load 17 T4    5  8.387430e-03 -4.592025e-05              0.0              0.0     NaN      1.0        True  wye
124   Load 17 T5    5  7.413197e-03 -3.363152e-05              0.0              0.0     NaN      1.0        True  wye
125   Load 17 T6    5 -1.625696e-04 -3.647898e-07              0.0              0.0     NaN      1.0        True  wye
126   Load 17 T7    5  6.099497e-03 -3.648649e-05              0.0              0.0     NaN      1.0        True  wye
127   Load 17 T8    5  5.432590e-03 -2.029890e-05              0.0              0.0     NaN      1.0        True  wye
128   Load 17 T9    5 -9.577325e-04 -2.933172e-05              0.0              0.0     NaN      1.0        True  wye
129  Load 17 T10    5 -3.112415e-03 -1.038947e-04              0.0              0.0     NaN      1.0        True  wye
130  Load 17 T11    5 -5.194431e-03 -4.816087e-05              0.0              0.0     NaN      1.0        True  wye
131  Load 17 T12    5  4.995800e-03 -1.600606e-05              0.0              0.0     NaN      1.0        True  wye
132  Load 17 T13    5  7.491584e-03 -2.029929e-05              0.0              0.0     NaN      1.0        True  wye
133  Load 17 T14    5  3.203275e-03 -7.002872e-06              0.0              0.0     NaN      1.0        True  wye
134  Load 17 T15    5 -5.298893e-03 -1.399241e-04              0.0              0.0     NaN      1.0        True  wye
135  Load 17 T16    5 -1.058566e-03 -4.549437e-05              0.0              0.0     NaN      1.0        True  wye
136  Load 17 T17    5  3.547122e-03 -7.015663e-06              0.0              0.0     NaN      1.0        True  wye
137  Load 17 T18    5  3.127416e-03 -6.093416e-06              0.0              0.0     NaN      1.0        True  wye
138  Load 17 T19    5  5.384665e-03 -2.037529e-05              0.0              0.0     NaN      1.0        True  wye
139  Load 17 T20    5  3.230682e-03 -6.358312e-06              0.0              0.0     NaN      1.0        True  wye
140  Load 17 T21    5  7.178424e-03 -5.986504e-05              0.0              0.0     NaN      1.0        True  wye
141  Load 17 T22    5  6.314673e-03 -2.642728e-05              0.0              0.0     NaN      1.0        True  wye
142  Load 17 T23    5  2.461239e-03 -4.805188e-06              0.0              0.0     NaN      1.0        True  wye
143  Load 17 T24    5  6.487726e-03 -2.755342e-05              0.0              0.0     NaN      1.0        True  wye
144   Load 18 T1    6 -1.248509e-05  0.000000e+00              0.0              0.0     NaN      1.0        True  wye
145   Load 18 T2    6 -1.248553e-05  0.000000e+00              0.0              0.0     NaN      1.0        True  wye
146   Load 18 T3    6 -1.248553e-05  0.000000e+00              0.0              0.0     NaN      1.0        True  wye
147   Load 18 T4    6  0.000000e+00  0.000000e+00              0.0              0.0     NaN      1.0        True  wye
148   Load 18 T5    6  0.000000e+00  0.000000e+00              0.0              0.0     NaN      1.0        True  wye
149   Load 18 T6    6 -1.248553e-05  0.000000e+00              0.0              0.0     NaN      1.0        True  wye
150   Load 18 T7    6  1.310054e-03  0.000000e+00              0.0              0.0     NaN      1.0        True  wye
151   Load 18 T8    6 -9.869505e-05  0.000000e+00              0.0              0.0     NaN      1.0        True  wye
152   Load 18 T9    6 -3.953258e-03  0.000000e+00              0.0              0.0     NaN      1.0        True  wye
153  Load 18 T10    6 -7.231613e-03  0.000000e+00              0.0              0.0     NaN      1.0        True  wye
154  Load 18 T11    6 -2.972166e-03  0.000000e+00              0.0              0.0     NaN      1.0        True  wye
155  Load 18 T12    6 -4.396535e-04  0.000000e+00              0.0              0.0     NaN      1.0        True  wye
156  Load 18 T13    6 -3.212241e-03  0.000000e+00              0.0              0.0     NaN      1.0        True  wye
157  Load 18 T14    6 -3.212241e-03  0.000000e+00              0.0              0.0     NaN      1.0        True  wye
158  Load 18 T15    6 -7.646288e-03  0.000000e+00              0.0              0.0     NaN      1.0        True  wye
159  Load 18 T16    6 -5.095508e-03  0.000000e+00              0.0              0.0     NaN      1.0        True  wye
160  Load 18 T17    6 -4.521564e-04  0.000000e+00              0.0              0.0     NaN      1.0        True  wye
161  Load 18 T18    6 -1.248553e-05  0.000000e+00              0.0              0.0     NaN      1.0        True  wye
162  Load 18 T19    6 -1.248553e-05  0.000000e+00              0.0              0.0     NaN      1.0        True  wye
163  Load 18 T20    6 -1.248553e-05  0.000000e+00              0.0              0.0     NaN      1.0        True  wye
164  Load 18 T21    6  1.968818e-03  0.000000e+00              0.0              0.0     NaN      1.0        True  wye
165  Load 18 T22    6 -1.248553e-05  0.000000e+00              0.0              0.0     NaN      1.0        True  wye
166  Load 18 T23    6 -1.882969e-04  0.000000e+00              0.0              0.0     NaN      1.0        True  wye
167  Load 18 T24    6 -1.248553e-05  0.000000e+00              0.0              0.0     NaN      1.0        True  wye
168   Load 19 T1    7  4.045498e-03 -1.019197e-05              0.0              0.0     NaN      1.0        True  wye
169   Load 19 T2    7  4.723762e-03 -1.403150e-05              0.0              0.0     NaN      1.0        True  wye
170   Load 19 T3    7  3.701881e-03 -8.246819e-06              0.0              0.0     NaN      1.0        True  wye
171   Load 19 T4    7  3.267946e-03 -5.790395e-06              0.0              0.0     NaN      1.0        True  wye
172   Load 19 T5    7  3.410414e-03 -6.596883e-06              0.0              0.0     NaN      1.0        True  wye
173   Load 19 T6    7  4.398917e-03 -1.219261e-05              0.0              0.0     NaN      1.0        True  wye
174   Load 19 T7    7  3.306283e-03 -6.007416e-06              0.0              0.0     NaN      1.0        True  wye
175   Load 19 T8    7  6.963388e-04 -1.180873e-06              0.0              0.0     NaN      1.0        True  wye
176   Load 19 T9    7 -9.022183e-04 -1.523383e-06              0.0              0.0     NaN      1.0        True  wye
177  Load 19 T10    7 -5.051778e-03 -1.566094e-05              0.0              0.0     NaN      1.0        True  wye
178  Load 19 T11    7 -7.567045e-03 -3.006737e-05              0.0              0.0     NaN      1.0        True  wye
179  Load 19 T12    7 -1.047059e-02 -6.102432e-05              0.0              0.0     NaN      1.0        True  wye
180  Load 19 T13    7 -1.066911e-02 -6.314092e-05              0.0              0.0     NaN      1.0        True  wye
181  Load 19 T14    7 -9.413122e-03 -4.974985e-05              0.0              0.0     NaN      1.0        True  wye
182  Load 19 T15    7 -5.131356e-03 -1.610497e-05              0.0              0.0     NaN      1.0        True  wye
183  Load 19 T16    7 -3.018753e-03 -5.097124e-06              0.0              0.0     NaN      1.0        True  wye
184  Load 19 T17    7  9.372275e-04 -1.590143e-06              0.0              0.0     NaN      1.0        True  wye
185  Load 19 T18    7  4.523534e-03 -1.289804e-05              0.0              0.0     NaN      1.0        True  wye
186  Load 19 T19    7  4.592410e-03 -1.328794e-05              0.0              0.0     NaN      1.0        True  wye
187  Load 19 T20    7  3.967076e-03 -9.748042e-06              0.0              0.0     NaN      1.0        True  wye
188  Load 19 T21    7  3.531203e-03 -7.280645e-06              0.0              0.0     NaN      1.0        True  wye
189  Load 19 T22    7  4.382391e-03 -1.209906e-05              0.0              0.0     NaN      1.0        True  wye
190  Load 19 T23    7  4.284662e-03 -1.154583e-05              0.0              0.0     NaN      1.0        True  wye
191  Load 19 T24    7  3.622647e-03 -7.798294e-06              0.0              0.0     NaN      1.0        True  wye
192   Load 20 T1    8  3.932105e-03 -1.070010e-03              0.0              0.0     NaN      1.0        True  wye
193   Load 20 T2    8  3.926872e-03 -1.245039e-03              0.0              0.0     NaN      1.0        True  wye
194   Load 20 T3    8  4.830526e-03 -1.104536e-03              0.0              0.0     NaN      1.0        True  wye
195   Load 20 T4    8  5.030372e-03 -1.300693e-03              0.0              0.0     NaN      1.0        True  wye
196   Load 20 T5    8  4.380927e-03 -1.084859e-03              0.0              0.0     NaN      1.0        True  wye
197   Load 20 T6    8  5.453549e-03 -1.240088e-03              0.0              0.0     NaN      1.0        True  wye
198   Load 20 T7    8  3.799605e-03 -1.252797e-03              0.0              0.0     NaN      1.0        True  wye
199   Load 20 T8    8  2.328235e-03 -1.342352e-03              0.0              0.0     NaN      1.0        True  wye
...

EXT_GRID:
        name  bus  vm_pu  va_degree  slack_weight  in_service
0  ExtGrid 0   19    1.0        0.0           1.0        True
1  ExtGrid 1   21    1.0        0.0           1.0        True
--------------------------------------------------

LINE:
       name std_type  from_bus  to_bus  length_km  r_ohm_per_km  x_ohm_per_km  c_nf_per_km  g_us_per_km  max_i_ka   df  parallel  type  in_service   geo
0    Line 0     None        20      15   0.400000        0.5502         0.429          0.0          0.0      0.23  1.0         1  None        True  None
1    Line 7     None        22      17   1.100000        0.5502         0.429          0.0          0.0      0.23  1.0         1  None        True  None
2    Line 8     None        15       9   0.316228        0.5502         0.429          0.0          0.0      0.23  1.0         1  None        True  None
3   Line 17     None        17      12   0.141421        0.5502         0.429          0.0          0.0      0.23  1.0         1  None        True  None
4   Line 18     None        17      13   0.223607        0.5502         0.429          0.0          0.0      0.23  1.0         1  None        True  None
5   Line 20     None        16       0   0.136015        0.5502         0.429          0.0          0.0      0.23  1.0         1  None        True  None
6   Line 34     None        18       5   0.225610        0.5502         0.429          0.0          0.0      0.23  1.0         1  None        True  None
7   Line 36     None        18       7   0.196469        0.5502         0.429          0.0          0.0      0.23  1.0         1  None        True  None
8   Line 37     None        18       8   0.050000        0.5502         0.429          0.0          0.0      0.23  1.0         1  None        True  None
9   Line 38     None        10       9   0.141421        0.5502         0.429          0.0          0.0      0.23  1.0         1  None        True  None
10  Line 40     None        11      10   0.200000        0.5502         0.429          0.0          0.0      0.23  1.0         1  None        True  None
11  Line 43     None        14      13   0.200000        0.5502         0.429          0.0          0.0      0.23  1.0         1  None        True  None
12  Line 44     None         1       0   0.172047        0.5502         0.429          0.0          0.0      0.23  1.0         1  None        True  None
13  Line 46     None         3       0   0.194165        0.5502         0.429          0.0          0.0      0.23  1.0         1  None        True  None
14  Line 47     None         2       1   0.263059        0.5502         0.429          0.0          0.0      0.23  1.0         1  None        True  None
15  Line 52     None         8       4   0.353836        0.5502         0.429          0.0          0.0      0.23  1.0         1  None        True  None
16  Line 53     None         6       5   0.253180        0.5502         0.429          0.0          0.0      0.23  1.0         1  None        True  None
--------------------------------------------------

TRAFO:
                  name std_type  hv_bus  lv_bus  sn_mva  vn_hv_kv  vn_lv_kv  vk_percent  vkr_percent  pfe_kw  i0_percent  shift_degree tap_side  tap_neutral  tap_min  tap_max  tap_step_percent  tap_step_degree  tap_pos tap_changer_type  id_characteristic_table  tap_dependency_table  parallel   df  in_service
0  MV/LV Transformer 2     None      15      16    10.0      15.0       0.4        0.01         0.01    0.01        0.01           0.0     None          NaN      NaN      NaN               NaN              NaN      NaN              NaN                     <NA>                 False         1  1.0        True
1  MV/LV Transformer 5     None      17      18    10.0      15.0       0.4        0.01         0.01    0.01        0.01           0.0     None          NaN      NaN      NaN               NaN              NaN      NaN              NaN                     <NA>                 False         1  1.0        True
2  Slack Transformer 0     None      19      20    40.0      70.0      15.0        0.01         0.01    0.01        0.01           0.0     None          NaN      NaN      NaN               NaN              NaN      NaN              NaN                     <NA>                 False         1  1.0        True
3  Slack Transformer 1     None      21      22    40.0      70.0      15.0        0.01         0.01    0.01        0.01           0.0     None          NaN      NaN      NaN               NaN              NaN      NaN              NaN                     <NA>                 False         1  1.0        True
--------------------------------------------------

RES_BUS:
       vm_pu     va_degree          p_mw        q_mvar
0   0.996869 -1.404058e-01  2.274469e-03 -2.332168e-05
1   0.995101 -2.195977e-01  2.972457e-03  0.000000e+00
2   0.995100 -2.195877e-01  3.516816e-07  4.644360e-07
3   0.996007 -1.790588e-01  1.286626e-03  0.000000e+00
4   0.994391 -3.842719e-01  4.078127e-03 -9.189379e-04
5   0.994743 -2.362563e-01  6.487726e-03 -2.755342e-05
6   0.994754 -2.357655e-01 -1.248553e-05  0.000000e+00
7   0.997333 -1.193218e-01  3.622647e-03 -7.798294e-06
8   0.998517 -9.649013e-02  4.757442e-03 -1.021048e-03
9   0.999889 -4.879347e-03  1.901050e-02 -6.129440e-06
10  0.999875 -5.503439e-03  1.588468e-02 -2.598568e-07
11  0.999863 -6.038902e-03  2.450122e-02  0.000000e+00
12  0.999779 -9.550613e-03  1.564408e-02  2.683546e-03
13  0.999761 -1.047390e-02  2.348808e-02 -7.598986e-03
14  0.999748 -1.074196e-02  2.099242e-02  6.806482e-03
15  0.999935 -2.826794e-03  0.000000e+00  0.000000e+00
16  0.999934 -2.826509e-03  0.000000e+00  0.000000e+00
17  0.999785 -9.362010e-03  0.000000e+00  0.000000e+00
18  0.999785 -9.362822e-03  0.000000e+00  0.000000e+00
19  1.000000  0.000000e+00 -6.598469e-02 -4.997360e-03
20  1.000000  4.293412e-07  0.000000e+00  0.000000e+00
21  1.000000  0.000000e+00 -7.917377e-02 -4.989848e-03
22  1.000000  4.282652e-07  0.000000e+00  0.000000e+00
--------------------------------------------------

RES_LINE:
       p_from_mw   q_from_mvar       p_to_mw     q_to_mvar         pl_mw       ql_mvar     i_from_ka       i_to_ka          i_ka  vm_from_pu  va_from_degree  vm_to_pu  va_to_degree  loading_percent
0   6.597468e-02  9.973730e-04 -6.597042e-02 -9.940526e-04  4.258455e-06  3.320387e-06  2.539657e-03  2.539657e-03  2.539657e-03    1.000000    4.293412e-07  0.999935     -0.002827         1.104199
1   7.916375e-02  9.898615e-04 -7.914689e-02 -9.767157e-04  1.685977e-05  1.314584e-05  3.047253e-03  3.047253e-03  3.047253e-03    1.000000    4.282652e-07  0.999785     -0.009362         1.324893
2   5.939999e-02 -3.592735e-06 -5.939726e-02  5.720406e-06  2.728775e-06  2.127671e-06  2.286456e-03  2.286456e-03  2.286456e-03    0.999935   -2.826794e-03  0.999889     -0.004879         0.994112
3   1.564416e-02  2.683614e-03 -1.564408e-02 -2.683546e-03  8.716455e-08  6.796364e-08  6.110708e-04  6.110708e-04  6.110708e-04    0.999785   -9.362010e-03  0.999779     -0.009551         0.265683
4   4.448182e-02 -7.914745e-04 -4.448074e-02  7.923187e-04  1.082711e-06  8.442076e-07  1.712746e-03  1.712746e-03  1.712746e-03    0.999785   -9.362010e-03  0.999761     -0.010474         0.744672
5   6.560430e-03 -2.173710e-06 -6.540297e-03  1.787172e-05  2.013298e-05  1.569802e-05  9.469786e-03  9.469786e-03  9.469786e-03    0.999934   -2.826509e-03  0.996869     -0.140406         4.117298
6   6.508114e-03 -1.921088e-06 -6.475240e-03  2.755375e-05  3.287433e-05  2.563266e-05  9.395678e-03  9.395678e-03  9.395678e-03    0.999785   -9.362822e-03  0.994743     -0.236256         4.085077
7   3.631561e-03 -8.480051e-07 -3.622647e-03  7.798326e-06  8.913908e-06  6.950321e-06  5.242837e-03  5.242837e-03  5.242837e-03    0.999785   -9.362822e-03  0.997333     -0.119322         2.279494
8   8.871239e-03 -1.912174e-03 -8.857072e-03  1.923220e-03  1.416606e-05  1.104551e-05  1.310143e-02  1.310143e-02  1.310143e-02    0.999785   -9.362822e-03  0.998517     -0.096490         5.696273
9  -4.038620e-02  3.087671e-08  4.038676e-02  4.090340e-07  5.641932e-07  4.399107e-07  1.554660e-03  1.554660e-03  1.554660e-03    0.999875   -5.503439e-03  0.999889     -0.004879         0.675939
10 -2.450122e-02 -7.686415e-14  2.450151e-02  2.289811e-07  2.936721e-07  2.289810e-07  9.431818e-04  9.431818e-04  9.431818e-04    0.999863   -6.038902e-03  0.999875     -0.005503         0.410079
11 -2.099242e-02 -6.806482e-03  2.099266e-02  6.806668e-03  2.383004e-07  1.858068e-07  8.496235e-04  8.496235e-04  8.496235e-04    0.999748   -1.074196e-02  0.999761     -0.010474         0.369402
12 -2.972808e-03 -4.642886e-07  2.978088e-03  4.581306e-06  5.280147e-06  4.117018e-06  4.312004e-03  4.312004e-03  4.312004e-03    0.995101   -2.195977e-01  0.996869     -0.140406         1.874784
13 -1.286626e-03  3.913310e-11  1.287740e-03  8.686973e-07  1.114170e-06  8.687364e-07  1.864530e-03  1.864530e-03  1.864530e-03    0.996007   -1.790588e-01  0.996869     -0.140406         0.810665
14 -3.516817e-07 -4.644358e-07  3.516820e-07  4.644361e-07  3.100324e-13  2.417373e-13  8.449988e-07  8.449988e-07  8.449988e-07    0.995100   -2.195877e-01  0.995101     -0.219598         0.000367
15  4.099630e-03 -9.021710e-04 -4.078126e-03  9.189381e-04  2.150403e-05  1.676705e-05  6.067893e-03  6.067893e-03  6.067893e-03    0.998517   -9.649013e-02  0.994391     -0.384272         2.638215
16  1.248553e-05 -8.120075e-13 -1.248539e-05  1.077541e-10  1.371551e-10  1.069421e-10  1.811634e-05  1.811634e-05  1.811634e-05    0.994754   -2.357655e-01  0.994743     -0.236256         0.007877
--------------------------------------------------

RES_TRAFO:
    p_hv_mw  q_hv_mvar   p_lv_mw  q_lv_mvar    pl_mw  ql_mvar   i_hv_ka   i_lv_ka  vm_hv_pu  va_hv_degree  vm_lv_pu  va_lv_degree  loading_percent
0  0.006570   0.000998 -0.006560   0.000002  0.00001    0.001  0.000256  0.009470  0.999935     -0.002827  0.999934 -2.826509e-03         0.066462
1  0.019021  -0.000915 -0.019011   0.001915  0.00001    0.001  0.000733  0.027585  0.999785     -0.009362  0.999785 -9.362822e-03         0.191112
2  0.065985   0.004997 -0.065975  -0.000997  0.00001    0.004  0.000546  0.002540  1.000000      0.000000  1.000000  4.293412e-07         0.165434
3  0.079174   0.004990 -0.079164  -0.000990  0.00001    0.004  0.000654  0.003047  1.000000      0.000000  1.000000  4.282652e-07         0.198327
--------------------------------------------------

RES_EXT_GRID:
       p_mw    q_mvar
0  0.065985  0.004997
1  0.079174  0.004990
--------------------------------------------------

RES_LOAD:
             p_mw        q_mvar
0    0.000000e+00 -0.000000e+00
1    0.000000e+00 -0.000000e+00
2    0.000000e+00 -0.000000e+00
3    0.000000e+00 -0.000000e+00
4    0.000000e+00 -0.000000e+00
5    0.000000e+00 -0.000000e+00
6    0.000000e+00 -0.000000e+00
7   -0.000000e+00 -0.000000e+00
8   -0.000000e+00 -0.000000e+00
9   -0.000000e+00 -0.000000e+00
10  -0.000000e+00 -0.000000e+00
11  -0.000000e+00 -0.000000e+00
12  -0.000000e+00 -0.000000e+00
13  -0.000000e+00 -0.000000e+00
14  -0.000000e+00 -0.000000e+00
15  -0.000000e+00 -0.000000e+00
16  -0.000000e+00 -0.000000e+00
17   0.000000e+00 -0.000000e+00
18   0.000000e+00 -0.000000e+00
19   0.000000e+00 -0.000000e+00
20   0.000000e+00 -0.000000e+00
21   0.000000e+00 -0.000000e+00
22   0.000000e+00 -0.000000e+00
23   2.274469e-03 -2.332168e-05
24   0.000000e+00 -0.000000e+00
25   0.000000e+00 -0.000000e+00
26   0.000000e+00  0.000000e+00
27   0.000000e+00 -0.000000e+00
28   0.000000e+00  0.000000e+00
29   0.000000e+00 -0.000000e+00
30   0.000000e+00 -0.000000e+00
31   0.000000e+00 -0.000000e+00
32  -0.000000e+00 -0.000000e+00
33  -0.000000e+00 -0.000000e+00
34  -0.000000e+00 -0.000000e+00
35  -0.000000e+00 -0.000000e+00
36  -0.000000e+00 -0.000000e+00
37  -0.000000e+00 -0.000000e+00
38  -0.000000e+00 -0.000000e+00
39  -0.000000e+00 -0.000000e+00
40   0.000000e+00 -0.000000e+00
41   0.000000e+00 -0.000000e+00
42   0.000000e+00  0.000000e+00
43   0.000000e+00 -0.000000e+00
44   0.000000e+00 -0.000000e+00
45   0.000000e+00 -0.000000e+00
46   0.000000e+00 -0.000000e+00
47   2.972457e-03  0.000000e+00
48   0.000000e+00  0.000000e+00
49   0.000000e+00  0.000000e+00
50   0.000000e+00  0.000000e+00
51   0.000000e+00  0.000000e+00
52   0.000000e+00 -0.000000e+00
53   0.000000e+00  0.000000e+00
54   0.000000e+00  0.000000e+00
55   0.000000e+00  0.000000e+00
56  -0.000000e+00  0.000000e+00
57  -0.000000e+00  0.000000e+00
58  -0.000000e+00  0.000000e+00
59   0.000000e+00  0.000000e+00
60   0.000000e+00 -0.000000e+00
61   0.000000e+00  0.000000e+00
62  -0.000000e+00  0.000000e+00
63  -0.000000e+00  0.000000e+00
64   0.000000e+00  0.000000e+00
65   0.000000e+00  0.000000e+00
66   0.000000e+00  0.000000e+00
67   0.000000e+00  0.000000e+00
68   0.000000e+00  0.000000e+00
69   0.000000e+00  0.000000e+00
70   0.000000e+00  0.000000e+00
71   3.516816e-07  4.644360e-07
72   0.000000e+00  0.000000e+00
73   0.000000e+00  0.000000e+00
74   0.000000e+00  0.000000e+00
75   0.000000e+00  0.000000e+00
76   0.000000e+00  0.000000e+00
77   0.000000e+00  0.000000e+00
78   0.000000e+00  0.000000e+00
79   0.000000e+00  0.000000e+00
80  -0.000000e+00  0.000000e+00
81  -0.000000e+00  0.000000e+00
82  -0.000000e+00  0.000000e+00
83   0.000000e+00 -0.000000e+00
84  -0.000000e+00 -0.000000e+00
85  -0.000000e+00  0.000000e+00
86  -0.000000e+00  0.000000e+00
87  -0.000000e+00  0.000000e+00
88   0.000000e+00  0.000000e+00
89   0.000000e+00  0.000000e+00
90   0.000000e+00  0.000000e+00
91   0.000000e+00  0.000000e+00
92   0.000000e+00  0.000000e+00
93   0.000000e+00  0.000000e+00
94   0.000000e+00  0.000000e+00
95   1.286626e-03  0.000000e+00
96   0.000000e+00 -0.000000e+00
97   0.000000e+00 -0.000000e+00
98   0.000000e+00 -0.000000e+00
99   0.000000e+00 -0.000000e+00
100  0.000000e+00 -0.000000e+00
101  0.000000e+00 -0.000000e+00
102  0.000000e+00 -0.000000e+00
103  0.000000e+00 -0.000000e+00
104  0.000000e+00 -0.000000e+00
105 -0.000000e+00 -0.000000e+00
106 -0.000000e+00 -0.000000e+00
107  0.000000e+00 -0.000000e+00
108  0.000000e+00 -0.000000e+00
109  0.000000e+00 -0.000000e+00
110 -0.000000e+00 -0.000000e+00
111  0.000000e+00 -0.000000e+00
112  0.000000e+00 -0.000000e+00
113  0.000000e+00 -0.000000e+00
114  0.000000e+00 -0.000000e+00
115  0.000000e+00 -0.000000e+00
116  0.000000e+00 -0.000000e+00
117  0.000000e+00 -0.000000e+00
118  0.000000e+00 -0.000000e+00
119  4.078127e-03 -9.189379e-04
120  0.000000e+00 -0.000000e+00
121  0.000000e+00 -0.000000e+00
122  0.000000e+00 -0.000000e+00
123  0.000000e+00 -0.000000e+00
124  0.000000e+00 -0.000000e+00
125 -0.000000e+00 -0.000000e+00
126  0.000000e+00 -0.000000e+00
127  0.000000e+00 -0.000000e+00
128 -0.000000e+00 -0.000000e+00
129 -0.000000e+00 -0.000000e+00
130 -0.000000e+00 -0.000000e+00
131  0.000000e+00 -0.000000e+00
132  0.000000e+00 -0.000000e+00
133  0.000000e+00 -0.000000e+00
134 -0.000000e+00 -0.000000e+00
135 -0.000000e+00 -0.000000e+00
136  0.000000e+00 -0.000000e+00
137  0.000000e+00 -0.000000e+00
138  0.000000e+00 -0.000000e+00
139  0.000000e+00 -0.000000e+00
140  0.000000e+00 -0.000000e+00
141  0.000000e+00 -0.000000e+00
142  0.000000e+00 -0.000000e+00
143  6.487726e-03 -2.755342e-05
144 -0.000000e+00  0.000000e+00
145 -0.000000e+00  0.000000e+00
146 -0.000000e+00  0.000000e+00
147  0.000000e+00  0.000000e+00
148  0.000000e+00  0.000000e+00
149 -0.000000e+00  0.000000e+00
150  0.000000e+00  0.000000e+00
151 -0.000000e+00  0.000000e+00
152 -0.000000e+00  0.000000e+00
153 -0.000000e+00  0.000000e+00
154 -0.000000e+00  0.000000e+00
155 -0.000000e+00  0.000000e+00
156 -0.000000e+00  0.000000e+00
157 -0.000000e+00  0.000000e+00
158 -0.000000e+00  0.000000e+00
159 -0.000000e+00  0.000000e+00
160 -0.000000e+00  0.000000e+00
161 -0.000000e+00  0.000000e+00
162 -0.000000e+00  0.000000e+00
163 -0.000000e+00  0.000000e+00
164  0.000000e+00  0.000000e+00
165 -0.000000e+00  0.000000e+00
166 -0.000000e+00  0.000000e+00
167 -1.248553e-05  0.000000e+00
168  0.000000e+00 -0.000000e+00
169  0.000000e+00 -0.000000e+00
170  0.000000e+00 -0.000000e+00
171  0.000000e+00 -0.000000e+00
172  0.000000e+00 -0.000000e+00
173  0.000000e+00 -0.000000e+00
174  0.000000e+00 -0.000000e+00
175  0.000000e+00 -0.000000e+00
176 -0.000000e+00 -0.000000e+00
177 -0.000000e+00 -0.000000e+00
178 -0.000000e+00 -0.000000e+00
179 -0.000000e+00 -0.000000e+00
180 -0.000000e+00 -0.000000e+00
181 -0.000000e+00 -0.000000e+00
182 -0.000000e+00 -0.000000e+00
183 -0.000000e+00 -0.000000e+00
184  0.000000e+00 -0.000000e+00
185  0.000000e+00 -0.000000e+00
186  0.000000e+00 -0.000000e+00
187  0.000000e+00 -0.000000e+00
188  0.000000e+00 -0.000000e+00
189  0.000000e+00 -0.000000e+00
190  0.000000e+00 -0.000000e+00
191  3.622647e-03 -7.798294e-06
192  0.000000e+00 -0.000000e+00
193  0.000000e+00 -0.000000e+00
194  0.000000e+00 -0.000000e+00
195  0.000000e+00 -0.000000e+00
196  0.000000e+00 -0.000000e+00
197  0.000000e+00 -0.000000e+00
198  0.000000e+00 -0.000000e+00
199  0.000000e+00 -0.000000e+00
...

BUS_GEODATA:
        x      y
0    11.0   48.0
1    25.0   38.0
2    51.0   42.0
3     0.0   64.0
4   129.0  138.0
5   105.0   88.0
6   130.0   92.0
7    81.0  115.0
8   103.0  114.0
9    10.0   70.0
10   20.0   80.0
11   40.0   80.0
12   90.0  120.0
13  120.0  120.0
14  120.0  100.0
15    0.0   40.0
16    0.5   39.5
17  100.0  110.0
18  100.5  109.5
19    0.0    0.0
20    0.5   -0.5
21  100.0    0.0
22  100.5   -0.5
--------------------------------------------------
